example_uvm/cimhub_converted/test_SOUTH_D1_Alburgh_volt.csv
# test_SOUTH_D1_Alburgh_volt.csv run at 2000-01-01 00:00:00 EST on 19670 powerflow objects (not all are nodes)
node_name,voltA_mag,voltA_angle,voltB_mag,voltB_angle,voltC_mag,voltC_angle
cap_capa_2146_a,6892.675069,-0.076958,0.000000,0.000000,0.000000,0.000000
cap_cap-28209,6888.953203,-0.072014,7149.099416,4.132419,6961.191124,2.039394
cap_cap-28397_c,7161.599979,-0.038594,7126.788602,4.158551,7032.672419,2.047851
cap_cap-28397_a,7161.599979,-0.038594,7126.788602,4.158551,7032.672419,2.047851
cap_cap-28397_b,7161.599979,-0.038594,7126.788602,4.158551,7032.672419,2.047851
cap_cap-58177,6829.313124,-0.063711,7116.793828,4.138021,6943.536346,2.048007
e72804503095262,111.819810,-0.070115,111.819810,-0.070115,0.000000,0.000000
span_197041,119.067414,-0.039053,119.067414,-0.039053,0.000000,0.000000
span_197047,112.037208,-0.067735,112.037208,-0.067735,0.000000,0.000000
span_197046,112.037208,-0.067735,112.037208,-0.067735,0.000000,0.000000
span_133862,118.978538,-0.044621,118.978538,-0.044621,0.000000,0.000000
span_70104,116.583498,2.043851,116.583498,2.043851,0.000000,0.000000
span_70103,116.583498,2.043851,116.583498,2.043851,0.000000,0.000000
e72809600040328,113.304209,2.045957,113.304209,2.045957,0.000000,0.000000
span_69100,114.681728,-0.075580,114.681728,-0.075580,0.000000,0.000000
span_69101,101.096188,2.056821,101.096188,2.056821,0.000000,0.000000
span_197028,118.542102,4.155111,118.542102,4.155111,0.000000,0.000000
span_71420,103.457787,2.055808,103.457787,2.055808,0.000000,0.000000
span_71414,104.938819,2.064849,104.938819,2.064849,0.000000,0.000000
span_71417,104.938819,2.064849,104.938819,2.064849,0.000000,0.000000
span_71418,104.035912,2.065941,104.035912,2.065941,0.000000,0.000000
span_71419,103.457787,2.055808,103.457787,2.055808,0.000000,0.000000
span_71410,115.563557,-0.062518,115.563557,-0.062518,0.000000,0.000000
span_72742,117.009474,2.045963,117.009474,2.045963,0.000000,0.000000
span_72743,117.009474,2.045963,117.009474,2.045963,0.000000,0.000000
e72805103101112,104.060898,2.066000,104.060898,2.066000,0.000000,0.000000
span_96701,116.842141,4.167680,116.842141,4.167680,0.000000,0.000000
span_96702,116.842141,4.167680,116.842141,4.167680,0.000000,0.000000
span_96700,117.064705,4.171218,117.064705,4.171218,0.000000,0.000000
span_96709,117.012209,4.169637,117.012209,4.169637,0.000000,0.000000
span_71483,113.668706,-0.076092,113.668706,-0.076092,0.000000,0.000000
span_71484,113.668706,-0.076092,113.668706,-0.076092,0.000000,0.000000
span_96707,118.305411,4.173135,118.305411,4.173135,0.000000,0.000000
span_96708,117.012209,4.169637,117.012209,4.169637,0.000000,0.000000
span_71486,115.063506,-0.068210,115.063506,-0.068210,0.000000,0.000000
span_96705,116.972268,4.169750,116.972268,4.169750,0.000000,0.000000
span_96706,118.305411,4.173135,118.305411,4.173135,0.000000,0.000000
span_96703,117.849420,4.170689,117.849420,4.170689,0.000000,0.000000
span_96704,116.985645,4.169953,116.985645,4.169953,0.000000,0.000000
span_185027,116.938693,2.044366,116.938693,2.044366,0.000000,0.000000
e100b_d1_29x,115.778478,-0.053511,115.778478,-0.053511,0.000000,0.000000
span_185028,116.938693,2.044366,116.938693,2.044366,0.000000,0.000000
span_185029,119.238207,4.161654,119.238207,4.161654,0.000000,0.000000
span_71493,114.892135,-0.070910,114.892135,-0.070910,0.000000,0.000000
span_96710,118.305411,4.173135,118.305411,4.173135,0.000000,0.000000
span_173024,113.926706,2.046419,113.926706,2.046419,0.000000,0.000000
e72805000040875,117.019725,4.155093,117.019725,4.155093,0.000000,0.000000
span_71472,104.094610,2.065526,104.094610,2.065526,0.000000,0.000000
span_71473,104.094610,2.065526,104.094610,2.065526,0.000000,0.000000
span_71474,104.094610,2.065526,104.094610,2.065526,0.000000,0.000000
span_71476,113.738982,-0.074143,113.738982,-0.074143,0.000000,0.000000
span_71477,113.738982,-0.074143,113.738982,-0.074143,0.000000,0.000000
span_71478,113.874950,-0.073475,113.874950,-0.073475,0.000000,0.000000
span_71479,113.352505,-0.081554,113.352505,-0.081554,0.000000,0.000000
span_71480,113.462217,-0.079811,113.462217,-0.079811,0.000000,0.000000
span_71481,113.462217,-0.079811,113.462217,-0.079811,0.000000,0.000000
span_71482,113.332542,-0.081843,113.332542,-0.081843,0.000000,0.000000
e72805000038559,117.011758,2.047779,117.011758,2.047779,0.000000,0.000000
span_71469,103.522574,2.054943,103.522574,2.054943,0.000000,0.000000
span_71461,103.824672,2.059498,103.824672,2.059498,0.000000,0.000000
span_71462,103.824672,2.059498,103.824672,2.059498,0.000000,0.000000
span_71463,115.434682,-0.058924,115.434682,-0.058924,0.000000,0.000000
span_71464,115.434682,-0.058924,115.434682,-0.058924,0.000000,0.000000
span_71465,103.522574,2.054943,103.522574,2.054943,0.000000,0.000000
span_71466,103.522574,2.054943,103.522574,2.054943,0.000000,0.000000
span_216701,115.101277,-0.068137,115.101277,-0.068137,0.000000,0.000000
span_71467,103.522574,2.054943,103.522574,2.054943,0.000000,0.000000
span_71468,103.522574,2.054943,103.522574,2.054943,0.000000,0.000000
span_42937,113.710565,-0.065226,113.710565,-0.065226,0.000000,0.000000
span_71470,103.522574,2.054943,103.522574,2.054943,0.000000,0.000000
span_71471,103.522574,2.054943,103.522574,2.054943,0.000000,0.000000
span_71458,103.824672,2.059498,103.824672,2.059498,0.000000,0.000000
span_71459,103.824672,2.059498,103.824672,2.059498,0.000000,0.000000
span_71450,113.216711,2.047856,113.216711,2.047856,0.000000,0.000000
span_71454,115.339978,-0.060348,115.339978,-0.060348,0.000000,0.000000
span_71455,115.786195,-0.053323,115.786195,-0.053323,0.000000,0.000000
span_71457,115.786195,-0.053323,115.786195,-0.053323,0.000000,0.000000
span_71460,103.824672,2.059498,103.824672,2.059498,0.000000,0.000000
span_108814,103.407216,2.058717,103.407216,2.058717,0.000000,0.000000
span_60707,117.752513,-0.041491,117.752513,-0.041491,0.000000,0.000000
e102_d1_90c,115.810319,-0.062371,115.810319,-0.062371,0.000000,0.000000
span_223806,103.407216,2.058717,103.407216,2.058717,0.000000,0.000000
e72804503096515,112.934468,2.041363,112.934468,2.041363,0.000000,0.000000
e72805203095735,118.515773,4.123894,118.515773,4.123894,0.000000,0.000000
e72805000039829,116.733884,2.043992,116.733884,2.043992,0.000000,0.000000
e72805203095712,118.809671,4.135874,118.809671,4.135874,0.000000,0.000000
span_71403,115.506942,-0.063423,115.506942,-0.063423,0.000000,0.000000
span_71405,115.506942,-0.063423,115.506942,-0.063423,0.000000,0.000000
span_71406,115.506942,-0.063423,115.506942,-0.063423,0.000000,0.000000
span_71407,105.267423,2.066123,105.267423,2.066123,0.000000,0.000000
span_71408,115.563557,-0.062518,115.563557,-0.062518,0.000000,0.000000
span_71409,115.563557,-0.062518,115.563557,-0.062518,0.000000,0.000000
e72805200061245,118.835936,4.150530,118.835936,4.150530,0.000000,0.000000
span_71402,115.506942,-0.063423,115.506942,-0.063423,0.000000,0.000000
span_60741,117.141037,2.048630,117.141037,2.048630,0.000000,0.000000
span_60740,117.125294,4.134255,117.125294,4.134255,0.000000,0.000000
span_60742,114.856373,-0.071695,114.856373,-0.071695,0.000000,0.000000
e72805203100818,116.538076,2.043657,116.538076,2.043657,0.000000,0.000000
span_121822,115.915123,2.045746,115.915123,2.045746,0.000000,0.000000
e72805200063882,117.947406,4.157154,117.947406,4.157154,0.000000,0.000000
e72805000045695,117.752513,-0.041491,117.752513,-0.041491,0.000000,0.000000
e103c_d1_39,114.781271,2.042930,114.781271,2.042930,0.000000,0.000000
e72805203095760,117.887134,4.157573,117.887134,4.157573,0.000000,0.000000
span_60738,117.691643,4.154505,117.691643,4.154505,0.000000,0.000000
span_60739,117.618441,4.153382,117.618441,4.153382,0.000000,0.000000
span_226139,113.285186,-0.076295,113.285186,-0.076295,0.000000,0.000000
span_215498,117.082430,4.150799,117.082430,4.150799,0.000000,0.000000
span_64222,116.034425,2.047032,116.034425,2.047032,0.000000,0.000000
span_64221,116.034425,2.047032,116.034425,2.047032,0.000000,0.000000
span_66879,112.840669,-0.081452,112.840669,-0.081452,0.000000,0.000000
e72805103096045,104.002508,2.065519,104.002508,2.065519,0.000000,0.000000
e72804503092989,118.012398,4.136388,118.012398,4.136388,0.000000,0.000000
span_94091,118.877476,4.134754,118.877476,4.134754,0.000000,0.000000
e72804503092995,112.900027,-0.067693,112.900027,-0.067693,0.000000,0.000000
e72804503092992,112.692922,-0.071048,112.692922,-0.071048,0.000000,0.000000
e72804503092991,113.035302,-0.065524,113.035302,-0.065524,0.000000,0.000000
e72805100041504,115.339978,-0.060348,115.339978,-0.060348,0.000000,0.000000
e102_d1_124c1,114.770440,-0.072969,114.770440,-0.072969,0.000000,0.000000
span_226189,118.157270,-0.035705,118.157270,-0.035705,0.000000,0.000000
span_216728,118.540930,4.141790,118.540930,4.141790,0.000000,0.000000
span_70079,115.604233,2.040579,115.604233,2.040579,0.000000,0.000000
span_70078,115.604233,2.040579,115.604233,2.040579,0.000000,0.000000
span_70077,115.819824,2.043899,115.819824,2.043899,0.000000,0.000000
span_70076,115.876642,2.044554,115.876642,2.044554,0.000000,0.000000
span_216729,118.540930,4.141790,118.540930,4.141790,0.000000,0.000000
span_70075,115.876642,2.044554,115.876642,2.044554,0.000000,0.000000
e72805200042120,113.460412,-0.078747,113.460412,-0.078747,0.000000,0.000000
span_70085,116.080968,2.048196,116.080968,2.048196,0.000000,0.000000
span_70084,116.080968,2.048196,116.080968,2.048196,0.000000,0.000000
span_70083,116.080968,2.048196,116.080968,2.048196,0.000000,0.000000
span_70082,116.095356,2.048378,116.095356,2.048378,0.000000,0.000000
span_70081,116.095356,2.048378,116.095356,2.048378,0.000000,0.000000
span_216738,116.106375,2.048726,116.106375,2.048726,0.000000,0.000000
span_70069,118.945867,4.131443,118.945867,4.131443,0.000000,0.000000
span_54838,118.045692,4.143131,118.045692,4.143131,0.000000,0.000000
span_70067,114.718699,-0.073667,114.718699,-0.073667,0.000000,0.000000
span_70066,114.718699,-0.073667,114.718699,-0.073667,0.000000,0.000000
span_54837,118.045692,4.143131,118.045692,4.143131,0.000000,0.000000
span_70065,114.718699,-0.073667,114.718699,-0.073667,0.000000,0.000000
span_54839,118.302247,4.147212,118.302247,4.147212,0.000000,0.000000
span_216730,118.540930,4.141790,118.540930,4.141790,0.000000,0.000000
span_216734,115.794933,2.043831,115.794933,2.043831,0.000000,0.000000
span_102600,118.856851,4.136093,118.856851,4.136093,0.000000,0.000000
span_70074,115.681475,2.034341,115.681475,2.034341,0.000000,0.000000
e100c_d1_15_d1_v1,104.056845,2.062582,104.056845,2.062582,0.000000,0.000000
span_70073,115.838871,2.036971,115.838871,2.036971,0.000000,0.000000
span_70072,118.976425,4.131553,118.976425,4.131553,0.000000,0.000000
span_70071,118.976425,4.131553,118.976425,4.131553,0.000000,0.000000
span_70070,118.945867,4.131443,118.945867,4.131443,0.000000,0.000000
e72805100040225,103.713373,2.055633,103.713373,2.055633,0.000000,0.000000
e72805000062158,119.067414,-0.039053,119.067414,-0.039053,0.000000,0.000000
span_70061,118.957765,4.134617,118.957765,4.134617,0.000000,0.000000
span_215424,103.778572,2.061210,103.778572,2.061210,0.000000,0.000000
span_54862,115.968202,2.040897,115.968202,2.040897,0.000000,0.000000
span_102633,119.080203,-0.034779,119.080203,-0.034779,0.000000,0.000000
span_228759,116.965201,4.151862,116.965201,4.151862,0.000000,0.000000
span_65519,115.499919,2.037053,115.499919,2.037053,0.000000,0.000000
span_228753,115.627092,2.039509,115.627092,2.039509,0.000000,0.000000
span_215443,114.784095,-0.078335,114.784095,-0.078335,0.000000,0.000000
e72805003095466,116.502593,2.043755,116.502593,2.043755,0.000000,0.000000
e72805100040251,114.610541,-0.080958,114.610541,-0.080958,0.000000,0.000000
e72805003096788,119.151306,-0.037772,119.151306,-0.037772,0.000000,0.000000
span_96688,113.677932,-0.064380,113.677932,-0.064380,0.000000,0.000000
span_96689,113.677932,-0.064380,113.677932,-0.064380,0.000000,0.000000
span_54849,118.231927,4.146639,118.231927,4.146639,0.000000,0.000000
span_70099,116.645489,2.046484,116.645489,2.046484,0.000000,0.000000
span_70098,116.648326,2.046264,116.648326,2.046264,0.000000,0.000000
span_226110,118.521082,4.156796,118.521082,4.156796,0.000000,0.000000
span_70097,116.648326,2.046264,116.648326,2.046264,0.000000,0.000000
span_216786,112.855375,-0.067083,112.855375,-0.067083,0.000000,0.000000
span_54845,118.081218,4.144095,118.081218,4.144095,0.000000,0.000000
span_54844,118.146348,4.144997,118.146348,4.144997,0.000000,0.000000
span_54847,118.415242,4.149423,118.415242,4.149423,0.000000,0.000000
span_54846,118.081218,4.144095,118.081218,4.144095,0.000000,0.000000
span_54841,118.204768,4.145808,118.204768,4.145808,0.000000,0.000000
span_54843,118.146348,4.144997,118.146348,4.144997,0.000000,0.000000
span_54842,118.204768,4.145808,118.204768,4.145808,0.000000,0.000000
span_215451,103.755657,2.065407,103.755657,2.065407,0.000000,0.000000
span_96693,118.336205,4.140113,118.336205,4.140113,0.000000,0.000000
span_96694,118.432069,4.141564,118.432069,4.141564,0.000000,0.000000
span_228773,102.298785,2.066444,102.298785,2.066444,0.000000,0.000000
span_96691,113.680340,-0.064433,113.680340,-0.064433,0.000000,0.000000
span_96692,118.336205,4.140113,118.336205,4.140113,0.000000,0.000000
span_226115,117.011521,2.047493,117.011521,2.047493,0.000000,0.000000
span_96690,113.224400,-0.071749,113.224400,-0.071749,0.000000,0.000000
span_228777,118.031378,4.169996,118.031378,4.169996,0.000000,0.000000
span_96699,117.064705,4.171218,117.064705,4.171218,0.000000,0.000000
span_96697,117.102943,4.171859,117.102943,4.171859,0.000000,0.000000
span_70089,115.820142,2.044151,115.820142,2.044151,0.000000,0.000000
span_54859,116.239975,-0.056388,116.239975,-0.056388,0.000000,0.000000
span_228761,117.079904,2.050178,117.079904,2.050178,0.000000,0.000000
span_96698,117.102943,4.171859,117.102943,4.171859,0.000000,0.000000
span_70088,115.820142,2.044151,115.820142,2.044151,0.000000,0.000000
span_70087,115.820142,2.044151,115.820142,2.044151,0.000000,0.000000
span_96695,116.726492,4.165988,116.726492,4.165988,0.000000,0.000000
span_70086,115.691367,2.042091,115.691367,2.042091,0.000000,0.000000
span_96696,116.726492,4.165988,116.726492,4.165988,0.000000,0.000000
span_54856,118.724898,4.143730,118.724898,4.143730,0.000000,0.000000
span_54858,116.239975,-0.056388,116.239975,-0.056388,0.000000,0.000000
span_54857,115.924852,-0.061563,115.924852,-0.061563,0.000000,0.000000
span_54852,118.289023,4.147572,118.289023,4.147572,0.000000,0.000000
span_54854,115.877560,-0.062265,115.877560,-0.062265,0.000000,0.000000
span_54853,118.027559,4.143767,118.027559,4.143767,0.000000,0.000000
span_54861,115.968202,2.040897,115.968202,2.040897,0.000000,0.000000
span_54860,116.024699,-0.059759,116.024699,-0.059759,0.000000,0.000000
span_70094,118.499063,4.155103,118.499063,4.155103,0.000000,0.000000
span_228763,115.778478,-0.053511,115.778478,-0.053511,0.000000,0.000000
span_70092,118.689536,4.158058,118.689536,4.158058,0.000000,0.000000
span_226105,118.309849,4.151615,118.309849,4.151615,0.000000,0.000000
span_226107,112.842449,-0.081922,112.842449,-0.081922,0.000000,0.000000
span_70090,115.820142,2.044151,115.820142,2.044151,0.000000,0.000000
e72805100040280,115.030168,-0.070223,115.030168,-0.070223,0.000000,0.000000
span_57018,112.983237,2.043884,112.983237,2.043884,0.000000,0.000000
span_57019,112.983237,2.043884,112.983237,2.043884,0.000000,0.000000
span_57028,115.862031,2.041644,115.862031,2.041644,0.000000,0.000000
span_57025,113.290005,2.048590,113.290005,2.048590,0.000000,0.000000
span_144636,113.508547,-0.073695,113.508547,-0.073695,0.000000,0.000000
span_144635,113.508547,-0.073695,113.508547,-0.073695,0.000000,0.000000
e101e_d1_6,116.618031,2.041657,116.618031,2.041657,0.000000,0.000000
span_144634,113.508547,-0.073695,113.508547,-0.073695,0.000000,0.000000
span_57023,113.290005,2.048590,113.290005,2.048590,0.000000,0.000000
span_144633,113.508547,-0.073695,113.508547,-0.073695,0.000000,0.000000
span_57024,113.290005,2.048590,113.290005,2.048590,0.000000,0.000000
span_57021,113.290005,2.048590,113.290005,2.048590,0.000000,0.000000
span_57022,113.290005,2.048590,113.290005,2.048590,0.000000,0.000000
span_57020,112.983237,2.043884,112.983237,2.043884,0.000000,0.000000
span_72640,115.982042,-0.056642,115.982042,-0.056642,0.000000,0.000000
span_57029,115.862031,2.041644,115.862031,2.041644,0.000000,0.000000
span_57038,118.212929,4.153589,118.212929,4.153589,0.000000,0.000000
span_57039,118.035053,4.150929,118.035053,4.150929,0.000000,0.000000
span_57036,115.737493,2.041687,115.737493,2.041687,0.000000,0.000000
span_57037,118.212929,4.153589,118.212929,4.153589,0.000000,0.000000
span_58367,117.470619,4.131061,117.470619,4.131061,0.000000,0.000000
span_57034,116.203553,2.048881,116.203553,2.048881,0.000000,0.000000
span_57035,116.203553,2.048881,116.203553,2.048881,0.000000,0.000000
span_57032,116.207623,2.047346,116.207623,2.047346,0.000000,0.000000
span_58364,112.634989,-0.066155,112.634989,-0.066155,0.000000,0.000000
span_57033,115.877635,2.042998,115.877635,2.042998,0.000000,0.000000
span_57030,115.862031,2.041644,115.862031,2.041644,0.000000,0.000000
span_57031,115.862031,2.041644,115.862031,2.041644,0.000000,0.000000
span_72635,118.104964,4.173129,118.104964,4.173129,0.000000,0.000000
span_72636,115.596522,-0.063159,115.596522,-0.063159,0.000000,0.000000
span_72637,115.596522,-0.063159,115.596522,-0.063159,0.000000,0.000000
span_72638,115.997510,-0.056660,115.997510,-0.056660,0.000000,0.000000
span_72630,115.742328,-0.054733,115.742328,-0.054733,0.000000,0.000000
span_72631,115.702406,-0.055395,115.702406,-0.055395,0.000000,0.000000
span_72632,115.460001,-0.058824,115.460001,-0.058824,0.000000,0.000000
span_72633,115.606462,-0.056393,115.606462,-0.056393,0.000000,0.000000
span_72634,115.652647,-0.055540,115.652647,-0.055540,0.000000,0.000000
span_72625,115.890361,-0.053178,115.890361,-0.053178,0.000000,0.000000
span_72627,115.778191,-0.054510,115.778191,-0.054510,0.000000,0.000000
span_72628,115.742328,-0.054733,115.742328,-0.054733,0.000000,0.000000
span_72629,115.742328,-0.054733,115.742328,-0.054733,0.000000,0.000000
span_57009,113.223478,2.047888,113.223478,2.047888,0.000000,0.000000
span_72620,115.936010,-0.052113,115.936010,-0.052113,0.000000,0.000000
span_72621,115.936010,-0.052113,115.936010,-0.052113,0.000000,0.000000
span_72622,115.828468,-0.053883,115.828468,-0.053883,0.000000,0.000000
span_72623,115.944731,-0.052100,115.944731,-0.052100,0.000000,0.000000
span_57016,113.002741,2.044388,113.002741,2.044388,0.000000,0.000000
span_57017,112.983237,2.043884,112.983237,2.043884,0.000000,0.000000
span_57014,113.018394,2.044637,113.018394,2.044637,0.000000,0.000000
span_57015,113.018394,2.044637,113.018394,2.044637,0.000000,0.000000
span_57013,113.018394,2.044637,113.018394,2.044637,0.000000,0.000000
span_57011,113.223478,2.047888,113.223478,2.047888,0.000000,0.000000
span_69049,117.156552,4.169771,117.156552,4.169771,0.000000,0.000000
span_69048,117.156552,4.169771,117.156552,4.169771,0.000000,0.000000
span_69044,117.150652,-0.043075,117.150652,-0.043075,0.000000,0.000000
span_69046,117.193230,4.167584,117.193230,4.167584,0.000000,0.000000
span_69041,117.422983,-0.038949,117.422983,-0.038949,0.000000,0.000000
span_69040,117.422983,-0.038949,117.422983,-0.038949,0.000000,0.000000
span_69043,117.422983,-0.038949,117.422983,-0.038949,0.000000,0.000000
span_69042,117.422983,-0.038949,117.422983,-0.038949,0.000000,0.000000
e72805000040977,118.713325,4.157717,118.713325,4.157717,0.000000,0.000000
span_69056,115.788532,-0.056420,115.788532,-0.056420,0.000000,0.000000
span_69055,115.804065,-0.053974,115.804065,-0.053974,0.000000,0.000000
span_69052,115.804065,-0.053974,115.804065,-0.053974,0.000000,0.000000
span_69051,115.754089,-0.054780,115.754089,-0.054780,0.000000,0.000000
span_71352,117.665888,4.153250,117.665888,4.153250,0.000000,0.000000
span_69054,115.804065,-0.053974,115.804065,-0.053974,0.000000,0.000000
span_69053,115.804065,-0.053974,115.804065,-0.053974,0.000000,0.000000
span_69050,115.754089,-0.054780,115.754089,-0.054780,0.000000,0.000000
tran_75249,118.754021,4.149504,118.754021,4.149504,0.000000,0.000000
span_217916,115.829316,-0.053623,115.829316,-0.053623,0.000000,0.000000
span_58373,119.182228,-0.040370,119.182228,-0.040370,0.000000,0.000000
span_58372,117.661411,-0.041775,117.661411,-0.041775,0.000000,0.000000
span_58371,116.850154,2.044708,116.850154,2.044708,0.000000,0.000000
span_58370,117.206130,2.050215,117.206130,2.050215,0.000000,0.000000
span_57040,118.035053,4.150929,118.035053,4.150929,0.000000,0.000000
span_69038,117.422983,-0.038949,117.422983,-0.038949,0.000000,0.000000
span_72668,119.145375,4.159402,119.145375,4.159402,0.000000,0.000000
span_72669,119.145375,4.159402,119.145375,4.159402,0.000000,0.000000
span_69037,116.613771,2.039633,116.613771,2.039633,0.000000,0.000000
span_69039,117.422983,-0.038949,117.422983,-0.038949,0.000000,0.000000
span_144625,113.508547,-0.073695,113.508547,-0.073695,0.000000,0.000000
span_117024,112.088844,-0.068638,112.088844,-0.068638,0.000000,0.000000
e72805000039954,116.224334,2.039507,116.224334,2.039507,0.000000,0.000000
e101d_d1_39_d1_1_d1_v3,116.990330,2.047624,116.990330,2.047624,0.000000,0.000000
e72805203095859,115.795895,2.042884,115.795895,2.042884,0.000000,0.000000
e72804500040537,113.227622,2.046609,113.227622,2.046609,0.000000,0.000000
e103d_d1_46,112.283964,-0.064075,112.283964,-0.064075,0.000000,0.000000
e103d_d1_47,112.103218,-0.066943,112.103218,-0.066943,0.000000,0.000000
e103d_d1_52,112.181756,-0.065227,112.181756,-0.065227,0.000000,0.000000
e72805203095833,114.960134,2.044578,114.960134,2.044578,0.000000,0.000000
span_72613,116.102062,2.047734,116.102062,2.047734,0.000000,0.000000
span_72614,116.057476,2.047197,116.057476,2.047197,0.000000,0.000000
span_72615,115.876642,2.044554,115.876642,2.044554,0.000000,0.000000
span_72616,115.876642,2.044554,115.876642,2.044554,0.000000,0.000000
span_72610,115.908090,2.044441,115.908090,2.044441,0.000000,0.000000
span_72611,115.908090,2.044441,115.908090,2.044441,0.000000,0.000000
span_72612,115.908090,2.044441,115.908090,2.044441,0.000000,0.000000
span_61956,117.609290,4.152356,117.609290,4.152356,0.000000,0.000000
e72805100058453,115.551389,-0.057996,115.551389,-0.057996,0.000000,0.000000
span_72602,115.757309,2.043311,115.757309,2.043311,0.000000,0.000000
span_72603,115.757309,2.043311,115.757309,2.043311,0.000000,0.000000
span_72604,115.823629,2.044461,115.823629,2.044461,0.000000,0.000000
span_72605,115.823629,2.044461,115.823629,2.044461,0.000000,0.000000
span_72606,115.581285,2.040743,115.581285,2.040743,0.000000,0.000000
span_209440,117.398339,4.171797,117.398339,4.171797,0.000000,0.000000
span_209441,117.398339,4.171797,117.398339,4.171797,0.000000,0.000000
span_72607,115.839530,2.044828,115.839530,2.044828,0.000000,0.000000
span_72608,116.102119,2.049002,116.102119,2.049002,0.000000,0.000000
span_72609,116.177138,2.048669,116.177138,2.048669,0.000000,0.000000
span_72600,115.606850,2.040808,115.606850,2.040808,0.000000,0.000000
span_72601,116.027603,2.047506,116.027603,2.047506,0.000000,0.000000
e72805203095872,118.415242,4.149423,118.415242,4.149423,0.000000,0.000000
span_60609,104.036251,2.060606,104.036251,2.060606,0.000000,0.000000
span_60612,102.461776,2.060340,102.461776,2.060340,0.000000,0.000000
e72805203095875,115.495927,2.042883,115.495927,2.042883,0.000000,0.000000
span_60611,114.643289,-0.076297,114.643289,-0.076297,0.000000,0.000000
span_60610,115.300868,-0.066098,115.300868,-0.066098,0.000000,0.000000
e72805200061166,115.348169,-0.066984,115.348169,-0.066984,0.000000,0.000000
span_53458,115.786195,-0.053323,115.786195,-0.053323,0.000000,0.000000
span_215350,118.309012,-0.037626,118.309012,-0.037626,0.000000,0.000000
span_137429,115.012230,2.044229,115.012230,2.044229,0.000000,0.000000
span_64123,117.114496,4.170619,117.114496,4.170619,0.000000,0.000000
span_226000,118.430475,4.129778,118.430475,4.129778,0.000000,0.000000
span_64120,116.925709,4.167481,116.925709,4.167481,0.000000,0.000000
span_215369,118.027328,4.158658,118.027328,4.158658,0.000000,0.000000
span_229997,118.677706,4.157884,118.677706,4.157884,0.000000,0.000000
span_226001,118.584660,4.139508,118.584660,4.139508,0.000000,0.000000
span_229995,118.530683,4.143239,118.530683,4.143239,0.000000,0.000000
span_64119,116.925709,4.167481,116.925709,4.167481,0.000000,0.000000
span_64118,117.030244,4.168946,117.030244,4.168946,0.000000,0.000000
span_64117,117.030244,4.168946,117.030244,4.168946,0.000000,0.000000
span_215388,116.288991,2.040764,116.288991,2.040764,0.000000,0.000000
e72805000043127,118.266976,4.150791,118.266976,4.150791,0.000000,0.000000
span_215399,117.077855,2.045885,117.077855,2.045885,0.000000,0.000000
span_226058,118.887950,-0.038505,118.887950,-0.038505,0.000000,0.000000
span_65492,116.802730,2.043367,116.802730,2.043367,0.000000,0.000000
span_226049,118.099984,4.144908,118.099984,4.144908,0.000000,0.000000
span_64128,115.818682,-0.053525,115.818682,-0.053525,0.000000,0.000000
span_71285,116.541812,2.044644,116.541812,2.044644,0.000000,0.000000
span_71286,116.541812,2.044644,116.541812,2.044644,0.000000,0.000000
span_71287,116.415057,2.042693,116.415057,2.042693,0.000000,0.000000
span_71288,116.415057,2.042693,116.415057,2.042693,0.000000,0.000000
span_71289,116.288991,2.040764,116.288991,2.040764,0.000000,0.000000
span_216601,116.981510,4.131908,116.981510,4.131908,0.000000,0.000000
span_229925,116.630187,2.046246,116.630187,2.046246,0.000000,0.000000
span_71290,116.288991,2.040764,116.288991,2.040764,0.000000,0.000000
span_71291,116.288991,2.040764,116.288991,2.040764,0.000000,0.000000
span_71292,116.288991,2.040764,116.288991,2.040764,0.000000,0.000000
span_71293,116.288991,2.040764,116.288991,2.040764,0.000000,0.000000
span_71294,116.288991,2.040764,116.288991,2.040764,0.000000,0.000000
span_71295,116.088845,2.037695,116.088845,2.037695,0.000000,0.000000
e72805100040318,103.980592,2.061556,103.980592,2.061556,0.000000,0.000000
span_229924,116.630187,2.046246,116.630187,2.046246,0.000000,0.000000
span_71274,113.012024,2.044591,113.012024,2.044591,0.000000,0.000000
span_71275,112.885044,2.042524,112.885044,2.042524,0.000000,0.000000
span_71277,116.666425,2.046334,116.666425,2.046334,0.000000,0.000000
span_71278,116.622370,2.045785,116.622370,2.045785,0.000000,0.000000
span_71279,116.672702,2.046606,116.672702,2.046606,0.000000,0.000000
span_229915,117.110385,4.156620,117.110385,4.156620,0.000000,0.000000
span_71280,116.672702,2.046606,116.672702,2.046606,0.000000,0.000000
span_71281,116.472255,2.043480,116.472255,2.043480,0.000000,0.000000
span_71282,116.648326,2.046264,116.648326,2.046264,0.000000,0.000000
span_71283,116.431425,2.042842,116.431425,2.042842,0.000000,0.000000
span_71284,116.431425,2.042842,116.431425,2.042842,0.000000,0.000000
span_217958,117.038947,4.152128,117.038947,4.152128,0.000000,0.000000
span_217957,117.328046,4.156632,117.328046,4.156632,0.000000,0.000000
span_71263,113.202970,-0.072122,113.202970,-0.072122,0.000000,0.000000
span_72594,115.795895,2.042884,115.795895,2.042884,0.000000,0.000000
span_72595,115.795895,2.042884,115.795895,2.042884,0.000000,0.000000
span_71264,113.079673,2.045715,113.079673,2.045715,0.000000,0.000000
span_71265,113.079673,2.045715,113.079673,2.045715,0.000000,0.000000
span_71266,113.079673,2.045715,113.079673,2.045715,0.000000,0.000000
span_71267,113.079673,2.045715,113.079673,2.045715,0.000000,0.000000
span_217956,117.038947,4.152128,117.038947,4.152128,0.000000,0.000000
span_72598,115.884722,2.044983,115.884722,2.044983,0.000000,0.000000
span_71268,113.079673,2.045715,113.079673,2.045715,0.000000,0.000000
span_72599,115.606850,2.040808,115.606850,2.040808,0.000000,0.000000
span_71269,113.079673,2.045715,113.079673,2.045715,0.000000,0.000000
span_71270,113.012024,2.044591,113.012024,2.044591,0.000000,0.000000
span_71271,113.012024,2.044591,113.012024,2.044591,0.000000,0.000000
span_71272,113.012024,2.044591,113.012024,2.044591,0.000000,0.000000
span_71273,113.012024,2.044591,113.012024,2.044591,0.000000,0.000000
span_204643,113.743288,-0.063859,113.743288,-0.063859,0.000000,0.000000
span_204644,113.743288,-0.063859,113.743288,-0.063859,0.000000,0.000000
span_204645,113.743288,-0.063859,113.743288,-0.063859,0.000000,0.000000
span_204646,113.282418,-0.071232,113.282418,-0.071232,0.000000,0.000000
span_229945,117.561921,4.156431,117.561921,4.156431,0.000000,0.000000
span_204642,113.743288,-0.063859,113.743288,-0.063859,0.000000,0.000000
span_229944,117.561921,4.156431,117.561921,4.156431,0.000000,0.000000
span_215309,115.499919,2.037053,115.499919,2.037053,0.000000,0.000000
e72805200043325,112.012537,-0.069017,112.012537,-0.069017,0.000000,0.000000
span_71252,117.360483,4.134814,117.360483,4.134814,0.000000,0.000000
span_71253,117.360483,4.134814,117.360483,4.134814,0.000000,0.000000
span_72584,117.668684,4.153614,117.668684,4.153614,0.000000,0.000000
span_71254,117.273135,4.133256,117.273135,4.133256,0.000000,0.000000
span_72585,117.668684,4.153614,117.668684,4.153614,0.000000,0.000000
span_72586,117.830998,4.156522,117.830998,4.156522,0.000000,0.000000
span_71255,117.273135,4.133256,117.273135,4.133256,0.000000,0.000000
span_72587,117.655524,4.153894,117.655524,4.153894,0.000000,0.000000
span_71256,117.273135,4.133256,117.273135,4.133256,0.000000,0.000000
span_71257,117.273135,4.133256,117.273135,4.133256,0.000000,0.000000
span_216635,118.555187,4.155910,118.555187,4.155910,0.000000,0.000000
span_72588,117.655524,4.153894,117.655524,4.153894,0.000000,0.000000
span_71258,117.273135,4.133256,117.273135,4.133256,0.000000,0.000000
span_216634,116.922963,2.043737,116.922963,2.043737,0.000000,0.000000
span_71259,115.012230,2.044229,115.012230,2.044229,0.000000,0.000000
span_71260,113.202970,-0.072122,113.202970,-0.072122,0.000000,0.000000
span_72591,118.859383,-0.046485,118.859383,-0.046485,0.000000,0.000000
span_71261,113.202970,-0.072122,113.202970,-0.072122,0.000000,0.000000
span_72592,118.859383,-0.046485,118.859383,-0.046485,0.000000,0.000000
span_72593,117.866607,4.157159,117.866607,4.157159,0.000000,0.000000
span_71262,113.202970,-0.072122,113.202970,-0.072122,0.000000,0.000000
span_229933,117.388555,-0.039835,117.388555,-0.039835,0.000000,0.000000
e72805000049273,116.819259,2.042854,116.819259,2.042854,0.000000,0.000000
span_229967,119.060399,-0.031070,119.060399,-0.031070,0.000000,0.000000
e100b_d1_11f,115.659247,-0.058551,115.659247,-0.058551,0.000000,0.000000
span_215328,118.000423,4.135263,118.000423,4.135263,0.000000,0.000000
span_215329,118.000423,4.135263,118.000423,4.135263,0.000000,0.000000
span_215320,115.792962,2.042587,115.792962,2.042587,0.000000,0.000000
span_216652,117.178669,-0.045859,117.178669,-0.045859,0.000000,0.000000
span_215321,115.792962,2.042587,115.792962,2.042587,0.000000,0.000000
span_54752,119.118309,-0.041682,119.118309,-0.041682,0.000000,0.000000
span_53421,118.196838,-0.035763,118.196838,-0.035763,0.000000,0.000000
span_216657,101.809983,2.061826,101.809983,2.061826,0.000000,0.000000
span_217987,115.810319,-0.062371,115.810319,-0.062371,0.000000,0.000000
span_216656,114.304442,-0.083042,114.304442,-0.083042,0.000000,0.000000
span_229958,118.653271,4.157491,118.653271,4.157491,0.000000,0.000000
e72805003101832,117.666707,-0.039838,117.666707,-0.039838,0.000000,0.000000
span_214002,115.971376,2.042190,115.971376,2.042190,0.000000,0.000000
span_214003,115.971376,2.042190,115.971376,2.042190,0.000000,0.000000
span_215331,116.613771,2.039633,116.613771,2.039633,0.000000,0.000000
span_217998,113.180185,-0.065251,113.180185,-0.065251,0.000000,0.000000
span_214004,115.971376,2.042190,115.971376,2.042190,0.000000,0.000000
span_215330,116.613771,2.039633,116.613771,2.039633,0.000000,0.000000
e72804500063287,113.473969,2.042932,113.473969,2.042932,0.000000,0.000000
span_71296,116.088845,2.037695,116.088845,2.037695,0.000000,0.000000
span_71297,116.441895,2.043254,116.441895,2.043254,0.000000,0.000000
span_71298,116.441895,2.043254,116.441895,2.043254,0.000000,0.000000
span_71299,116.441895,2.043254,116.441895,2.043254,0.000000,0.000000
span_69368,116.937871,4.154086,116.937871,4.154086,0.000000,0.000000
span_69367,116.937871,4.154086,116.937871,4.154086,0.000000,0.000000
span_69364,116.840118,4.152513,116.840118,4.152513,0.000000,0.000000
span_69365,116.840118,4.152513,116.840118,4.152513,0.000000,0.000000
span_69360,114.309050,-0.081777,114.309050,-0.081777,0.000000,0.000000
span_69362,116.990045,4.154559,116.990045,4.154559,0.000000,0.000000
span_57388,118.428815,-0.036069,118.428815,-0.036069,0.000000,0.000000
span_57389,116.346830,2.056995,116.346830,2.056995,0.000000,0.000000
span_57386,116.619948,4.164112,116.619948,4.164112,0.000000,0.000000
span_57387,116.299177,2.056225,116.299177,2.056225,0.000000,0.000000
span_57384,116.900134,4.168443,116.900134,4.168443,0.000000,0.000000
span_57385,116.900134,4.168443,116.900134,4.168443,0.000000,0.000000
e72805103102219,102.556576,2.064150,102.556576,2.064150,0.000000,0.000000
span_57382,116.900134,4.168443,116.900134,4.168443,0.000000,0.000000
span_57383,116.900134,4.168443,116.900134,4.168443,0.000000,0.000000
span_69379,118.853080,-0.041450,118.853080,-0.041450,0.000000,0.000000
span_69378,117.254228,2.045813,117.254228,2.045813,0.000000,0.000000
span_96996,118.491110,4.145457,118.491110,4.145457,0.000000,0.000000
span_96997,117.073719,2.050535,117.073719,2.050535,0.000000,0.000000
span_96994,118.754021,4.149504,118.754021,4.149504,0.000000,0.000000
span_69374,119.036737,-0.038530,119.036737,-0.038530,0.000000,0.000000
span_96995,118.461792,4.144961,118.461792,4.144961,0.000000,0.000000
span_69377,117.499934,2.049634,117.499934,2.049634,0.000000,0.000000
span_96993,118.754021,4.149504,118.754021,4.149504,0.000000,0.000000
e72805203095585,115.897745,-0.061409,115.897745,-0.061409,0.000000,0.000000
span_69371,116.625105,4.149223,116.625105,4.149223,0.000000,0.000000
span_71670,118.897392,-0.037901,118.897392,-0.037901,0.000000,0.000000
span_71671,118.969535,-0.036648,118.969535,-0.036648,0.000000,0.000000
span_69370,116.625105,4.149223,116.625105,4.149223,0.000000,0.000000
span_69373,119.165555,-0.036363,119.165555,-0.036363,0.000000,0.000000
span_71672,119.166088,-0.033555,119.166088,-0.033555,0.000000,0.000000
e72805200039919,113.244308,-0.075982,113.244308,-0.075982,0.000000,0.000000
span_57395,117.659240,4.166097,117.659240,4.166097,0.000000,0.000000
span_57396,117.561174,4.165153,117.561174,4.165153,0.000000,0.000000
span_57393,118.117841,-0.040592,118.117841,-0.040592,0.000000,0.000000
span_57392,118.147551,-0.040150,118.147551,-0.040150,0.000000,0.000000
span_71667,118.116517,2.055605,118.116517,2.055605,0.000000,0.000000
span_71668,118.116517,2.055605,118.116517,2.055605,0.000000,0.000000
span_69345,112.462673,-0.068063,112.462673,-0.068063,0.000000,0.000000
span_71669,118.897392,-0.037901,118.897392,-0.037901,0.000000,0.000000
span_69347,112.413092,-0.068819,112.413092,-0.068819,0.000000,0.000000
span_69342,115.089822,2.045306,115.089822,2.045306,0.000000,0.000000
span_69341,115.089822,2.045306,115.089822,2.045306,0.000000,0.000000
span_69343,112.462673,-0.068063,112.462673,-0.068063,0.000000,0.000000
span_69340,114.739745,2.039845,114.739745,2.039845,0.000000,0.000000
span_71665,118.116517,2.055605,118.116517,2.055605,0.000000,0.000000
span_71666,118.116517,2.055605,118.116517,2.055605,0.000000,0.000000
span_69339,114.739745,2.039845,114.739745,2.039845,0.000000,0.000000
span_69338,115.012230,2.044229,115.012230,2.044229,0.000000,0.000000
span_69357,119.065436,4.160636,119.065436,4.160636,0.000000,0.000000
span_71656,117.258896,2.045367,117.258896,2.045367,0.000000,0.000000
span_71657,117.258896,2.045367,117.258896,2.045367,0.000000,0.000000
span_69356,119.065436,4.160636,119.065436,4.160636,0.000000,0.000000
span_69359,114.845147,-0.073434,114.845147,-0.073434,0.000000,0.000000
span_71658,117.258896,2.045367,117.258896,2.045367,0.000000,0.000000
span_71659,117.508192,2.049441,117.508192,2.049441,0.000000,0.000000
e72805100041289,102.455646,2.066272,102.455646,2.066272,0.000000,0.000000
span_69358,118.116517,2.055605,118.116517,2.055605,0.000000,0.000000
span_69353,118.213842,2.056169,118.213842,2.056169,0.000000,0.000000
span_69352,114.859695,-0.073075,114.859695,-0.073075,0.000000,0.000000
span_69355,119.065436,4.160636,119.065436,4.160636,0.000000,0.000000
span_69354,119.229802,-0.031975,119.229802,-0.031975,0.000000,0.000000
span_71650,111.640478,-0.071015,111.640478,-0.071015,0.000000,0.000000
span_71651,111.640478,-0.071015,111.640478,-0.071015,0.000000,0.000000
span_71654,117.988292,2.054762,117.988292,2.054762,0.000000,0.000000
span_71655,117.988292,2.054762,117.988292,2.054762,0.000000,0.000000
span_57379,116.952601,4.163529,116.952601,4.163529,0.000000,0.000000
span_57377,117.052134,4.164921,117.052134,4.164921,0.000000,0.000000
e72805000063747,119.349628,-0.038613,119.349628,-0.038613,0.000000,0.000000
span_57378,117.365818,4.169785,117.365818,4.169785,0.000000,0.000000
span_57375,118.128167,4.137132,118.128167,4.137132,0.000000,0.000000
span_57376,118.128167,4.137132,118.128167,4.137132,0.000000,0.000000
span_57373,118.453834,4.142245,118.453834,4.142245,0.000000,0.000000
span_57374,118.174965,4.137820,118.174965,4.137820,0.000000,0.000000
span_57371,118.335841,4.140395,118.335841,4.140395,0.000000,0.000000
span_57370,118.142891,4.137389,118.142891,4.137389,0.000000,0.000000
span_70397,115.819824,2.043899,115.819824,2.043899,0.000000,0.000000
span_68079,118.071065,-0.036794,118.071065,-0.036794,0.000000,0.000000
e72805000062413,117.766776,-0.035533,117.766776,-0.035533,0.000000,0.000000
span_56097,116.809029,4.151932,116.809029,4.151932,0.000000,0.000000
e72805203104109,117.052134,4.164921,117.052134,4.164921,0.000000,0.000000
span_69389,116.424392,2.041318,116.424392,2.041318,0.000000,0.000000
span_69385,119.091049,-0.037971,119.091049,-0.037971,0.000000,0.000000
span_69388,116.841422,2.047166,116.841422,2.047166,0.000000,0.000000
span_69382,117.442281,2.048872,117.442281,2.048872,0.000000,0.000000
span_69381,117.442281,2.048872,117.442281,2.048872,0.000000,0.000000
span_69380,118.853080,-0.041450,118.853080,-0.041450,0.000000,0.000000
e72805200040916,112.733591,-0.063623,112.733591,-0.063623,0.000000,0.000000
span_69390,116.937884,2.049367,116.937884,2.049367,0.000000,0.000000
e72805200040981,118.309012,-0.037626,118.309012,-0.037626,0.000000,0.000000
e72809600041497,114.507885,2.044192,114.507885,2.044192,0.000000,0.000000
span_99184,118.856851,4.136093,118.856851,4.136093,0.000000,0.000000
e72804503095419,112.041262,-0.067171,112.041262,-0.067171,0.000000,0.000000
span_99185,118.856851,4.136093,118.856851,4.136093,0.000000,0.000000
span_99186,118.856851,4.136093,118.856851,4.136093,0.000000,0.000000
span_215197,112.413092,-0.068819,112.413092,-0.068819,0.000000,0.000000
span_215196,112.413092,-0.068819,112.413092,-0.068819,0.000000,0.000000
span_99180,118.856851,4.136093,118.856851,4.136093,0.000000,0.000000
span_99181,118.856851,4.136093,118.856851,4.136093,0.000000,0.000000
span_99182,118.856851,4.136093,118.856851,4.136093,0.000000,0.000000
span_99183,118.856851,4.136093,118.856851,4.136093,0.000000,0.000000
span_72921,116.994403,4.167252,116.994403,4.167252,0.000000,0.000000
span_72922,116.994403,4.167252,116.994403,4.167252,0.000000,0.000000
span_72923,116.994403,4.167252,116.994403,4.167252,0.000000,0.000000
span_72924,116.141655,-0.055399,116.141655,-0.055399,0.000000,0.000000
span_72925,116.326869,-0.051667,116.326869,-0.051667,0.000000,0.000000
span_72926,115.748722,-0.059112,115.748722,-0.059112,0.000000,0.000000
span_72927,116.147623,-0.054897,116.147623,-0.054897,0.000000,0.000000
span_99195,118.895182,4.136957,118.895182,4.136957,0.000000,0.000000
span_99196,118.895182,4.136957,118.895182,4.136957,0.000000,0.000000
span_99197,118.895182,4.136957,118.895182,4.136957,0.000000,0.000000
span_163425,118.067060,4.158826,118.067060,4.158826,0.000000,0.000000
span_163424,118.067060,4.158826,118.067060,4.158826,0.000000,0.000000
span_99194,118.895182,4.136957,118.895182,4.136957,0.000000,0.000000
span_72912,118.864066,4.148418,118.864066,4.148418,0.000000,0.000000
span_72913,118.763161,4.150485,118.763161,4.150485,0.000000,0.000000
span_72914,118.763161,4.150485,118.763161,4.150485,0.000000,0.000000
span_72917,118.585524,4.148052,118.585524,4.148052,0.000000,0.000000
span_223606,112.842449,-0.081922,112.842449,-0.081922,0.000000,0.000000
span_72918,118.585524,4.148052,118.585524,4.148052,0.000000,0.000000
span_72919,118.585524,4.148052,118.585524,4.148052,0.000000,0.000000
span_72900,117.068529,2.050407,117.068529,2.050407,0.000000,0.000000
span_72901,117.068529,2.050407,117.068529,2.050407,0.000000,0.000000
span_72902,117.068529,2.050407,117.068529,2.050407,0.000000,0.000000
span_72903,116.860517,2.048647,116.860517,2.048647,0.000000,0.000000
span_72904,116.663745,2.045488,116.663745,2.045488,0.000000,0.000000
span_72905,116.663745,2.045488,116.663745,2.045488,0.000000,0.000000
span_72906,117.006796,2.050752,117.006796,2.050752,0.000000,0.000000
e72805203100643,118.014169,4.141682,118.014169,4.141682,0.000000,0.000000
span_59953,113.460412,-0.078747,113.460412,-0.078747,0.000000,0.000000
span_72907,116.970599,2.049779,116.970599,2.049779,0.000000,0.000000
span_72908,116.554081,2.043169,116.554081,2.043169,0.000000,0.000000
span_72909,116.554081,2.043169,116.554081,2.043169,0.000000,0.000000
span_72976,112.480483,-0.064792,112.480483,-0.064792,0.000000,0.000000
span_71646,111.628445,-0.071352,111.628445,-0.071352,0.000000,0.000000
span_72977,112.480483,-0.064792,112.480483,-0.064792,0.000000,0.000000
span_69323,112.733591,-0.063623,112.733591,-0.063623,0.000000,0.000000
span_71647,111.806533,-0.068373,111.806533,-0.068373,0.000000,0.000000
span_71648,111.806533,-0.068373,111.806533,-0.068373,0.000000,0.000000
span_69320,112.527134,-0.067035,112.527134,-0.067035,0.000000,0.000000
span_71649,111.640478,-0.071015,111.640478,-0.071015,0.000000,0.000000
span_69322,112.527134,-0.067035,112.527134,-0.067035,0.000000,0.000000
span_69321,112.527134,-0.067035,112.527134,-0.067035,0.000000,0.000000
e72809600042789,117.341412,4.136102,117.341412,4.136102,0.000000,0.000000
e72809600042787,113.926706,2.046419,113.926706,2.046419,0.000000,0.000000
span_71640,111.839100,-0.066862,111.839100,-0.066862,0.000000,0.000000
span_72971,115.784705,-0.054391,115.784705,-0.054391,0.000000,0.000000
span_72972,115.784705,-0.054391,115.784705,-0.054391,0.000000,0.000000
span_71641,111.839100,-0.066862,111.839100,-0.066862,0.000000,0.000000
span_72973,115.784705,-0.054391,115.784705,-0.054391,0.000000,0.000000
span_71642,111.839100,-0.066862,111.839100,-0.066862,0.000000,0.000000
span_71643,111.839100,-0.066862,111.839100,-0.066862,0.000000,0.000000
span_72975,112.434740,-0.068570,112.434740,-0.068570,0.000000,0.000000
span_71644,111.839100,-0.066862,111.839100,-0.066862,0.000000,0.000000
e72805203095524,117.655524,4.153894,117.655524,4.153894,0.000000,0.000000
span_69317,112.358396,-0.069978,112.358396,-0.069978,0.000000,0.000000
span_69316,112.434740,-0.068570,112.434740,-0.068570,0.000000,0.000000
span_69319,112.236126,-0.071860,112.236126,-0.071860,0.000000,0.000000
span_69318,112.236126,-0.071860,112.236126,-0.071860,0.000000,0.000000
span_69335,114.803216,2.040943,114.803216,2.040943,0.000000,0.000000
span_71634,118.234180,4.137896,118.234180,4.137896,0.000000,0.000000
span_71635,111.766862,-0.068059,111.766862,-0.068059,0.000000,0.000000
e72809600042792,112.088844,-0.068638,112.088844,-0.068638,0.000000,0.000000
span_69334,114.803216,2.040943,114.803216,2.040943,0.000000,0.000000
span_72966,116.961268,2.045089,116.961268,2.045089,0.000000,0.000000
span_71636,111.839100,-0.066862,111.839100,-0.066862,0.000000,0.000000
span_69337,115.012230,2.044229,115.012230,2.044229,0.000000,0.000000
e72809600042790,117.470619,4.131061,117.470619,4.131061,0.000000,0.000000
span_71637,111.839100,-0.066862,111.839100,-0.066862,0.000000,0.000000
span_69331,114.835568,2.041471,114.835568,2.041471,0.000000,0.000000
span_72969,116.613771,2.039633,116.613771,2.039633,0.000000,0.000000
span_71638,111.839100,-0.066862,111.839100,-0.066862,0.000000,0.000000
span_71639,111.839100,-0.066862,111.839100,-0.066862,0.000000,0.000000
span_69330,112.200948,-0.072199,112.200948,-0.072199,0.000000,0.000000
span_69333,114.835568,2.041471,114.835568,2.041471,0.000000,0.000000
span_69332,114.835568,2.041471,114.835568,2.041471,0.000000,0.000000
span_72961,117.025990,2.045912,117.025990,2.045912,0.000000,0.000000
span_71631,102.298785,2.066444,102.298785,2.066444,0.000000,0.000000
span_72962,117.025990,2.045912,117.025990,2.045912,0.000000,0.000000
span_71632,102.298785,2.066444,102.298785,2.066444,0.000000,0.000000
span_72963,117.025990,2.045912,117.025990,2.045912,0.000000,0.000000
span_71633,118.234180,4.137896,118.234180,4.137896,0.000000,0.000000
span_69328,112.200948,-0.072199,112.200948,-0.072199,0.000000,0.000000
e72805203095536,119.390281,4.163070,119.390281,4.163070,0.000000,0.000000
span_69327,112.526196,-0.066962,112.526196,-0.066962,0.000000,0.000000
e72805203095538,116.342535,2.045779,116.342535,2.045779,0.000000,0.000000
span_69329,112.200948,-0.072199,112.200948,-0.072199,0.000000,0.000000
span_71623,103.578092,2.057163,103.578092,2.057163,0.000000,0.000000
span_72954,118.703680,4.158150,118.703680,4.158150,0.000000,0.000000
span_72955,118.658184,4.157411,118.658184,4.157411,0.000000,0.000000
span_72956,118.930555,-0.044273,118.930555,-0.044273,0.000000,0.000000
span_72957,118.930555,-0.044273,118.930555,-0.044273,0.000000,0.000000
span_72959,117.025990,2.045912,117.025990,2.045912,0.000000,0.000000
span_71620,103.813433,2.060855,103.813433,2.060855,0.000000,0.000000
span_72952,118.703680,4.158150,118.703680,4.158150,0.000000,0.000000
span_71621,103.813433,2.060855,103.813433,2.060855,0.000000,0.000000
span_71622,103.578092,2.057163,103.578092,2.057163,0.000000,0.000000
span_72953,118.703680,4.158150,118.703680,4.158150,0.000000,0.000000
span_69310,112.170614,-0.071324,112.170614,-0.071324,0.000000,0.000000
span_99173,118.856851,4.136093,118.856851,4.136093,0.000000,0.000000
span_99174,118.856851,4.136093,118.856851,4.136093,0.000000,0.000000
span_99175,118.856851,4.136093,118.856851,4.136093,0.000000,0.000000
span_99176,118.856851,4.136093,118.856851,4.136093,0.000000,0.000000
span_99177,118.856851,4.136093,118.856851,4.136093,0.000000,0.000000
span_99178,118.856851,4.136093,118.856851,4.136093,0.000000,0.000000
span_99179,118.856851,4.136093,118.856851,4.136093,0.000000,0.000000
span_59992,103.890107,2.063278,103.890107,2.063278,0.000000,0.000000
e72805100060415,115.813369,-0.055373,115.813369,-0.055373,0.000000,0.000000
e72805203095511,119.066393,-0.038691,119.066393,-0.038691,0.000000,0.000000
span_69306,112.605862,-0.063788,112.605862,-0.063788,0.000000,0.000000
span_69305,112.605862,-0.063788,112.605862,-0.063788,0.000000,0.000000
e72805203095517,114.765568,2.042463,114.765568,2.042463,0.000000,0.000000
span_69308,112.170614,-0.071324,112.170614,-0.071324,0.000000,0.000000
span_99171,118.856851,4.136093,118.856851,4.136093,0.000000,0.000000
span_99172,118.856851,4.136093,118.856851,4.136093,0.000000,0.000000
e72805003081003,118.481834,4.153976,118.481834,4.153976,0.000000,0.000000
span_103765,117.298860,4.172029,117.298860,4.172029,0.000000,0.000000
e72805003081004,117.001285,2.044664,117.001285,2.044664,0.000000,0.000000
span_103763,115.824119,-0.052745,115.824119,-0.052745,0.000000,0.000000
span_103762,104.316851,2.065117,104.316851,2.065117,0.000000,0.000000
e72805003081006,118.730879,4.158066,118.730879,4.158066,0.000000,0.000000
span_103761,103.909886,2.062773,103.909886,2.062773,0.000000,0.000000
span_103760,104.392257,2.066036,104.392257,2.066036,0.000000,0.000000
e72805003081009,118.309849,4.151615,118.309849,4.151615,0.000000,0.000000
span_103769,116.611690,2.045643,116.611690,2.045643,0.000000,0.000000
span_103768,116.950001,2.044945,116.950001,2.044945,0.000000,0.000000
span_103767,116.950001,2.044945,116.950001,2.044945,0.000000,0.000000
span_103766,117.170949,-0.046825,117.170949,-0.046825,0.000000,0.000000
e72805003081012,119.269203,-0.039746,119.269203,-0.039746,0.000000,0.000000
e72805003081014,118.941420,-0.044720,118.941420,-0.044720,0.000000,0.000000
e72805003081015,118.872463,-0.045543,118.872463,-0.045543,0.000000,0.000000
span_103775,119.012388,-0.043188,119.012388,-0.043188,0.000000,0.000000
span_103774,117.314973,4.155983,117.314973,4.155983,0.000000,0.000000
e72805003081017,119.118309,-0.041682,119.118309,-0.041682,0.000000,0.000000
span_103773,117.314973,4.155983,117.314973,4.155983,0.000000,0.000000
span_103771,116.641088,2.043363,116.641088,2.043363,0.000000,0.000000
span_216577,119.273717,-0.039788,119.273717,-0.039788,0.000000,0.000000
span_216576,119.273717,-0.039788,119.273717,-0.039788,0.000000,0.000000
span_216578,119.349628,-0.038613,119.349628,-0.038613,0.000000,0.000000
span_103777,101.675920,2.063916,101.675920,2.063916,0.000000,0.000000
e72805003081020,118.408959,4.153260,118.408959,4.153260,0.000000,0.000000
e72805003081022,119.012388,-0.043188,119.012388,-0.043188,0.000000,0.000000
e72805103097598,115.272414,-0.067181,115.272414,-0.067181,0.000000,0.000000
e72805100060475,104.079538,2.065129,104.079538,2.065129,0.000000,0.000000
e72805003103025,116.913221,4.153548,116.913221,4.153548,0.000000,0.000000
e72805003103024,117.074062,4.156020,117.074062,4.156020,0.000000,0.000000
e100_d1_134k1,118.728828,4.194734,118.728828,4.194734,0.000000,0.000000
span_229891,114.768909,2.044846,114.768909,2.044846,0.000000,0.000000
span_216598,116.981510,4.131908,116.981510,4.131908,0.000000,0.000000
e72805003081000,119.288684,-0.039147,119.288684,-0.039147,0.000000,0.000000
span_60907,112.088844,-0.068638,112.088844,-0.068638,0.000000,0.000000
span_60909,112.014766,-0.068695,112.014766,-0.068695,0.000000,0.000000
span_60901,112.990706,2.039791,112.990706,2.039791,0.000000,0.000000
span_60900,113.926706,2.046419,113.926706,2.046419,0.000000,0.000000
span_60903,113.227622,2.046609,113.227622,2.046609,0.000000,0.000000
e72805203100650,117.073719,2.050535,117.073719,2.050535,0.000000,0.000000
span_60905,112.983237,2.043884,112.983237,2.043884,0.000000,0.000000
span_60904,113.025997,2.044001,113.025997,2.044001,0.000000,0.000000
e72805200061078,113.332542,-0.081843,113.332542,-0.081843,0.000000,0.000000
e72809600040092,117.151558,4.134850,117.151558,4.134850,0.000000,0.000000
span_60910,111.713198,-0.069815,111.713198,-0.069815,0.000000,0.000000
span_103787,117.581220,4.153343,117.581220,4.153343,0.000000,0.000000
span_103786,117.310521,-0.040526,117.310521,-0.040526,0.000000,0.000000
span_103785,117.104728,4.154718,117.104728,4.154718,0.000000,0.000000
span_103784,117.349804,-0.040236,117.349804,-0.040236,0.000000,0.000000
span_103783,115.691367,2.042091,115.691367,2.042091,0.000000,0.000000
e72805100042603,103.901225,2.063219,103.901225,2.063219,0.000000,0.000000
span_64496,118.404466,4.142814,118.404466,4.142814,0.000000,0.000000
span_103782,115.819824,2.043899,115.819824,2.043899,0.000000,0.000000
span_103781,115.819824,2.043899,115.819824,2.043899,0.000000,0.000000
span_103780,116.802730,2.043367,116.802730,2.043367,0.000000,0.000000
span_215299,116.819259,2.042854,116.819259,2.042854,0.000000,0.000000
e72805200048095,116.034425,2.047032,116.034425,2.047032,0.000000,0.000000
span_103788,117.581220,4.153343,117.581220,4.153343,0.000000,0.000000
span_215297,117.941552,-0.041470,117.941552,-0.041470,0.000000,0.000000
span_103798,111.766862,-0.068059,111.766862,-0.068059,0.000000,0.000000
span_103797,111.766862,-0.068059,111.766862,-0.068059,0.000000,0.000000
span_103796,111.766862,-0.068059,111.766862,-0.068059,0.000000,0.000000
span_103794,119.065436,4.160636,119.065436,4.160636,0.000000,0.000000
span_103792,118.588540,4.156515,118.588540,4.156515,0.000000,0.000000
e72805203078953,115.613876,-0.065375,115.613876,-0.065375,0.000000,0.000000
span_183835,119.058216,4.165980,119.058216,4.165980,0.000000,0.000000
span_183832,119.216802,4.161250,119.216802,4.161250,0.000000,0.000000
e72805103104905,102.490893,2.067878,102.490893,2.067878,0.000000,0.000000
e72805003081092,117.082430,4.150799,117.082430,4.150799,0.000000,0.000000
span_144231,119.312895,-0.039193,119.312895,-0.039193,0.000000,0.000000
e72805003081097,116.876692,4.148696,116.876692,4.148696,0.000000,0.000000
e72805203078947,115.622508,-0.064706,115.622508,-0.064706,0.000000,0.000000
e72805203078945,119.003163,4.140117,119.003163,4.140117,0.000000,0.000000
e72804500043157,113.377492,2.047281,113.377492,2.047281,0.000000,0.000000
span_217828,117.442069,4.134427,117.442069,4.134427,0.000000,0.000000
e72805203078940,115.624206,-0.063950,115.624206,-0.063950,0.000000,0.000000
span_217829,117.442069,4.134427,117.442069,4.134427,0.000000,0.000000
e72805203078935,114.892135,-0.070910,114.892135,-0.070910,0.000000,0.000000
e72805203078975,115.558296,-0.066553,115.558296,-0.066553,0.000000,0.000000
e72805203078974,115.796687,-0.062627,115.796687,-0.062627,0.000000,0.000000
e72805203078970,115.587262,-0.065725,115.587262,-0.065725,0.000000,0.000000
span_217830,117.516153,4.136628,117.516153,4.136628,0.000000,0.000000
e72805003081071,116.756737,2.043617,116.756737,2.043617,0.000000,0.000000
e72805003081075,117.561921,4.156431,117.561921,4.156431,0.000000,0.000000
e72805203078969,115.452234,-0.067810,115.452234,-0.067810,0.000000,0.000000
e72805003081078,117.123143,4.149839,117.123143,4.149839,0.000000,0.000000
e72805203078967,115.251500,-0.070992,115.251500,-0.070992,0.000000,0.000000
e72805003081079,117.348242,4.153400,117.348242,4.153400,0.000000,0.000000
span_183827,119.049959,4.159066,119.049959,4.159066,0.000000,0.000000
span_183826,119.176491,4.159810,119.176491,4.159810,0.000000,0.000000
e72805203078960,115.799605,-0.062478,115.799605,-0.062478,0.000000,0.000000
e72805203078961,115.630580,-0.065098,115.630580,-0.065098,0.000000,0.000000
span_229817,118.613625,4.150210,118.613625,4.150210,0.000000,0.000000
span_229818,118.613625,4.150210,118.613625,4.150210,0.000000,0.000000
e72805003081081,117.491807,4.155662,117.491807,4.155662,0.000000,0.000000
e72805003081082,117.480857,4.155485,117.480857,4.155485,0.000000,0.000000
e72805003081084,118.045892,-0.037337,118.045892,-0.037337,0.000000,0.000000
e72805003081086,117.179872,4.151357,117.179872,4.151357,0.000000,0.000000
e72805003081088,117.027191,4.149349,117.027191,4.149349,0.000000,0.000000
e72805003081047,116.961268,2.045089,116.961268,2.045089,0.000000,0.000000
e72805003081048,119.182228,-0.040370,119.182228,-0.040370,0.000000,0.000000
e72805203078998,116.298622,2.042675,116.298622,2.042675,0.000000,0.000000
e72805203078992,116.384397,2.044225,116.384397,2.044225,0.000000,0.000000
e72805003081051,118.930555,-0.044273,118.930555,-0.044273,0.000000,0.000000
e72805003081054,118.547750,4.155728,118.547750,4.155728,0.000000,0.000000
e72805003081055,118.703680,4.158150,118.703680,4.158150,0.000000,0.000000
e72805203078988,116.412538,2.044710,116.412538,2.044710,0.000000,0.000000
e72805003081057,118.348193,4.152674,118.348193,4.152674,0.000000,0.000000
e72805003081058,118.693424,4.158007,118.693424,4.158007,0.000000,0.000000
e72805003081059,118.086127,-0.036251,118.086127,-0.036251,0.000000,0.000000
span_216539,117.686194,4.153133,117.686194,4.153133,0.000000,0.000000
span_216538,117.686194,4.153133,117.686194,4.153133,0.000000,0.000000
e72805203078983,115.761347,-0.063452,115.761347,-0.063452,0.000000,0.000000
e72805203078980,115.924370,2.037225,115.924370,2.037225,0.000000,0.000000
span_216537,117.686194,4.153133,117.686194,4.153133,0.000000,0.000000
span_216535,118.796890,4.135388,118.796890,4.135388,0.000000,0.000000
e72805103104966,103.954345,2.059697,103.954345,2.059697,0.000000,0.000000
e72805003081061,118.143244,-0.035488,118.143244,-0.035488,0.000000,0.000000
e72805003081065,117.949654,-0.038438,117.949654,-0.038438,0.000000,0.000000
e72805003081066,118.123958,-0.035756,118.123958,-0.035756,0.000000,0.000000
e72805003081067,118.148535,-0.035597,118.148535,-0.035597,0.000000,0.000000
e72805203078977,116.328336,2.043666,116.328336,2.043666,0.000000,0.000000
e72805203078978,115.842371,-0.062099,115.842371,-0.062099,0.000000,0.000000
e72805003081068,118.071065,-0.036794,118.071065,-0.036794,0.000000,0.000000
e72805003081026,119.004035,-0.043243,119.004035,-0.043243,0.000000,0.000000
e72805003081027,116.613771,2.039633,116.613771,2.039633,0.000000,0.000000
span_229862,112.181756,-0.065227,112.181756,-0.065227,0.000000,0.000000
span_229863,112.181756,-0.065227,112.181756,-0.065227,0.000000,0.000000
e72805003081036,117.025990,2.045912,117.025990,2.045912,0.000000,0.000000
e72805100040038,115.596522,-0.063159,115.596522,-0.063159,0.000000,0.000000
span_215221,117.827251,4.170894,117.827251,4.170894,0.000000,0.000000
e72805100040031,104.238911,2.060083,104.238911,2.060083,0.000000,0.000000
span_229852,115.423475,-0.065796,115.423475,-0.065796,0.000000,0.000000
e72805003081044,118.658184,4.157411,118.658184,4.157411,0.000000,0.000000
span_72899,117.068529,2.050407,117.068529,2.050407,0.000000,0.000000
span_94202,118.745006,4.134933,118.745006,4.134933,0.000000,0.000000
span_94201,118.745006,4.134933,118.745006,4.134933,0.000000,0.000000
span_94200,118.745006,4.134933,118.745006,4.134933,0.000000,0.000000
span_72891,116.768595,2.045588,116.768595,2.045588,0.000000,0.000000
span_72895,117.068529,2.050407,117.068529,2.050407,0.000000,0.000000
span_72898,117.068529,2.050407,117.068529,2.050407,0.000000,0.000000
e72805103102330,114.195849,-0.081067,114.195849,-0.081067,0.000000,0.000000
e72805003100654,118.000409,-0.038133,118.000409,-0.038133,0.000000,0.000000
span_72889,116.768595,2.045588,116.768595,2.045588,0.000000,0.000000
span_72880,118.792948,4.150093,118.792948,4.150093,0.000000,0.000000
span_72881,118.734230,4.149705,118.734230,4.149705,0.000000,0.000000
span_72882,118.734230,4.149705,118.734230,4.149705,0.000000,0.000000
span_72883,118.734230,4.149705,118.734230,4.149705,0.000000,0.000000
span_72884,118.734230,4.149705,118.734230,4.149705,0.000000,0.000000
span_72885,118.734230,4.149705,118.734230,4.149705,0.000000,0.000000
e72805000062566,117.803002,-0.036236,117.803002,-0.036236,0.000000,0.000000
span_72886,118.734230,4.149705,118.734230,4.149705,0.000000,0.000000
span_72887,116.864205,2.047037,116.864205,2.047037,0.000000,0.000000
span_72890,116.768595,2.045588,116.768595,2.045588,0.000000,0.000000
span_222208,114.781271,2.042930,114.781271,2.042930,0.000000,0.000000
span_222206,110.436138,2.051618,110.436138,2.051618,0.000000,0.000000
span_222205,110.436138,2.051618,110.436138,2.051618,0.000000,0.000000
span_72877,118.792948,4.150093,118.792948,4.150093,0.000000,0.000000
span_72878,118.792948,4.150093,118.792948,4.150093,0.000000,0.000000
span_72879,118.792948,4.150093,118.792948,4.150093,0.000000,0.000000
span_72870,118.873124,4.150954,118.873124,4.150954,0.000000,0.000000
span_72871,118.873124,4.150954,118.873124,4.150954,0.000000,0.000000
span_71540,114.826024,-0.071577,114.826024,-0.071577,0.000000,0.000000
span_71541,114.826024,-0.071577,114.826024,-0.071577,0.000000,0.000000
span_72874,118.825162,4.150205,118.825162,4.150205,0.000000,0.000000
span_72875,118.825162,4.150205,118.825162,4.150205,0.000000,0.000000
span_72876,118.519300,4.145067,118.519300,4.145067,0.000000,0.000000
span_72866,118.351632,4.143031,118.351632,4.143031,0.000000,0.000000
span_71535,114.575707,-0.080879,114.575707,-0.080879,0.000000,0.000000
span_72867,118.351632,4.143031,118.351632,4.143031,0.000000,0.000000
span_71536,114.575707,-0.080879,114.575707,-0.080879,0.000000,0.000000
span_71537,114.664682,-0.074064,114.664682,-0.074064,0.000000,0.000000
span_72868,118.830490,4.150474,118.830490,4.150474,0.000000,0.000000
span_71538,114.664682,-0.074064,114.664682,-0.074064,0.000000,0.000000
span_72869,118.873124,4.150954,118.873124,4.150954,0.000000,0.000000
span_71539,114.826368,-0.071512,114.826368,-0.071512,0.000000,0.000000
e72805200031065,112.840669,-0.081452,112.840669,-0.081452,0.000000,0.000000
...